<connections xmlns:xsi="http://www.w3.org/2001/XMLSchema-instance" xsi:noNamespaceSchemaLocation="http://sumo-sim.org/xsd/connections_file.xsd">
	<connection from="Southbound" to="Northbound"/>	
	<connection from="Eastbound" to="Westbound"/>
</connections>