<?xml version="1.0" encoding="UTF-8"?>

<!-- generated on Mon Apr 25 16:17:14 2016 by SUMO netgenerate Version 0.21.0
<?xml version="1.0" encoding="UTF-8"?>

<configuration xmlns:xsi="http://www.w3.org/2001/XMLSchema-instance" xsi:noNamespaceSchemaLocation="http://sumo-sim.org/xsd/netgenerateConfiguration.xsd">

    <grid_network>
        <grid value="true"/>
        <grid.number value="2"/>
        <grid.length value="100"/>
        <grid.attach-length value="100"/>
    </grid_network>

    <output>
        <output-file value="grid.net.xml"/>
    </output>

    <tls_building>
        <tls.guess value="true"/>
    </tls_building>

    <processing>
        <no-turnarounds value="true"/>
    </processing>

</configuration>
-->

<net version="0.13" xmlns:xsi="http://www.w3.org/2001/XMLSchema-instance" xsi:noNamespaceSchemaLocation="http://sumo-sim.org/xsd/net_file.xsd">

    <location netOffset="0.00,0.00" convBoundary="0.00,0.00,300.00,300.00" origBoundary="0.00,0.00,300.00,300.00" projParameter="!"/>

    <edge id=":0/0_0" function="internal">
        <lane id=":0/0_0_0" index="0" speed="13.90" length="5.00" shape="98.35,104.75 98.16,103.39 97.57,102.43 96.61,101.84 95.25,101.65"/>
    </edge>
    <edge id=":0/0_1" function="internal">
        <lane id=":0/0_1_0" index="0" speed="13.90" length="9.50" shape="98.35,104.75 98.35,95.25"/>
    </edge>
    <edge id=":0/0_2" function="internal">
        <lane id=":0/0_2_0" index="0" speed="13.90" length="3.18" shape="98.35,104.75 98.75,101.95 98.93,101.65"/>
    </edge>
    <edge id=":0/0_12" function="internal">
        <lane id=":0/0_12_0" index="0" speed="13.90" length="7.14" shape="98.93,101.65 99.95,99.95 101.95,98.75 104.75,98.35"/>
    </edge>
    <edge id=":0/0_3" function="internal">
        <lane id=":0/0_3_0" index="0" speed="13.90" length="5.00" shape="104.75,101.65 103.39,101.84 102.43,102.43 101.84,103.39 101.65,104.75"/>
    </edge>
    <edge id=":0/0_4" function="internal">
        <lane id=":0/0_4_0" index="0" speed="13.90" length="9.50" shape="104.75,101.65 95.25,101.65"/>
    </edge>
    <edge id=":0/0_5" function="internal">
        <lane id=":0/0_5_0" index="0" speed="13.90" length="3.18" shape="104.75,101.65 101.95,101.25 101.65,101.07"/>
    </edge>
    <edge id=":0/0_13" function="internal">
        <lane id=":0/0_13_0" index="0" speed="13.90" length="7.14" shape="101.65,101.07 99.95,100.05 98.75,98.05 98.35,95.25"/>
    </edge>
    <edge id=":0/0_6" function="internal">
        <lane id=":0/0_6_0" index="0" speed="13.90" length="5.00" shape="101.65,95.25 101.84,96.61 102.43,97.57 103.39,98.16 104.75,98.35"/>
    </edge>
    <edge id=":0/0_7" function="internal">
        <lane id=":0/0_7_0" index="0" speed="13.90" length="9.50" shape="101.65,95.25 101.65,104.75"/>
    </edge>
    <edge id=":0/0_8" function="internal">
        <lane id=":0/0_8_0" index="0" speed="13.90" length="3.18" shape="101.65,95.25 101.25,98.05 101.07,98.35"/>
    </edge>
    <edge id=":0/0_14" function="internal">
        <lane id=":0/0_14_0" index="0" speed="13.90" length="7.14" shape="101.07,98.35 100.05,100.05 98.05,101.25 95.25,101.65"/>
    </edge>
    <edge id=":0/0_9" function="internal">
        <lane id=":0/0_9_0" index="0" speed="13.90" length="5.00" shape="95.25,98.35 96.61,98.16 97.57,97.57 98.16,96.61 98.35,95.25"/>
    </edge>
    <edge id=":0/0_10" function="internal">
        <lane id=":0/0_10_0" index="0" speed="13.90" length="9.50" shape="95.25,98.35 104.75,98.35"/>
    </edge>
    <edge id=":0/0_11" function="internal">
        <lane id=":0/0_11_0" index="0" speed="13.90" length="3.18" shape="95.25,98.35 98.05,98.75 98.35,98.93"/>
    </edge>
    <edge id=":0/0_15" function="internal">
        <lane id=":0/0_15_0" index="0" speed="13.90" length="7.14" shape="98.35,98.93 100.05,99.95 101.25,101.95 101.65,104.75"/>
    </edge>
    <edge id=":0/1_0" function="internal">
        <lane id=":0/1_0_0" index="0" speed="13.90" length="5.00" shape="98.35,204.75 98.16,203.39 97.57,202.43 96.61,201.84 95.25,201.65"/>
    </edge>
    <edge id=":0/1_1" function="internal">
        <lane id=":0/1_1_0" index="0" speed="13.90" length="9.50" shape="98.35,204.75 98.35,195.25"/>
    </edge>
    <edge id=":0/1_2" function="internal">
        <lane id=":0/1_2_0" index="0" speed="13.90" length="3.18" shape="98.35,204.75 98.75,201.95 98.93,201.65"/>
    </edge>
    <edge id=":0/1_12" function="internal">
        <lane id=":0/1_12_0" index="0" speed="13.90" length="7.14" shape="98.93,201.65 99.95,199.95 101.95,198.75 104.75,198.35"/>
    </edge>
    <edge id=":0/1_3" function="internal">
        <lane id=":0/1_3_0" index="0" speed="13.90" length="5.00" shape="104.75,201.65 103.39,201.84 102.43,202.43 101.84,203.39 101.65,204.75"/>
    </edge>
    <edge id=":0/1_4" function="internal">
        <lane id=":0/1_4_0" index="0" speed="13.90" length="9.50" shape="104.75,201.65 95.25,201.65"/>
    </edge>
    <edge id=":0/1_5" function="internal">
        <lane id=":0/1_5_0" index="0" speed="13.90" length="3.18" shape="104.75,201.65 101.95,201.25 101.65,201.07"/>
    </edge>
    <edge id=":0/1_13" function="internal">
        <lane id=":0/1_13_0" index="0" speed="13.90" length="7.14" shape="101.65,201.07 99.95,200.05 98.75,198.05 98.35,195.25"/>
    </edge>
    <edge id=":0/1_6" function="internal">
        <lane id=":0/1_6_0" index="0" speed="13.90" length="5.00" shape="101.65,195.25 101.84,196.61 102.43,197.58 103.39,198.16 104.75,198.35"/>
    </edge>
    <edge id=":0/1_7" function="internal">
        <lane id=":0/1_7_0" index="0" speed="13.90" length="9.50" shape="101.65,195.25 101.65,204.75"/>
    </edge>
    <edge id=":0/1_8" function="internal">
        <lane id=":0/1_8_0" index="0" speed="13.90" length="3.18" shape="101.65,195.25 101.25,198.05 101.07,198.35"/>
    </edge>
    <edge id=":0/1_14" function="internal">
        <lane id=":0/1_14_0" index="0" speed="13.90" length="7.14" shape="101.07,198.35 100.05,200.05 98.05,201.25 95.25,201.65"/>
    </edge>
    <edge id=":0/1_9" function="internal">
        <lane id=":0/1_9_0" index="0" speed="13.90" length="5.00" shape="95.25,198.35 96.61,198.16 97.57,197.57 98.16,196.61 98.35,195.25"/>
    </edge>
    <edge id=":0/1_10" function="internal">
        <lane id=":0/1_10_0" index="0" speed="13.90" length="9.50" shape="95.25,198.35 104.75,198.35"/>
    </edge>
    <edge id=":0/1_11" function="internal">
        <lane id=":0/1_11_0" index="0" speed="13.90" length="3.18" shape="95.25,198.35 98.05,198.75 98.35,198.93"/>
    </edge>
    <edge id=":0/1_15" function="internal">
        <lane id=":0/1_15_0" index="0" speed="13.90" length="7.14" shape="98.35,198.93 100.05,199.95 101.25,201.95 101.65,204.75"/>
    </edge>
    <edge id=":1/0_0" function="internal">
        <lane id=":1/0_0_0" index="0" speed="13.90" length="5.00" shape="198.35,104.75 198.16,103.39 197.57,102.43 196.61,101.84 195.25,101.65"/>
    </edge>
    <edge id=":1/0_1" function="internal">
        <lane id=":1/0_1_0" index="0" speed="13.90" length="9.50" shape="198.35,104.75 198.35,95.25"/>
    </edge>
    <edge id=":1/0_2" function="internal">
        <lane id=":1/0_2_0" index="0" speed="13.90" length="3.18" shape="198.35,104.75 198.75,101.95 198.93,101.65"/>
    </edge>
    <edge id=":1/0_12" function="internal">
        <lane id=":1/0_12_0" index="0" speed="13.90" length="7.14" shape="198.93,101.65 199.95,99.95 201.95,98.75 204.75,98.35"/>
    </edge>
    <edge id=":1/0_3" function="internal">
        <lane id=":1/0_3_0" index="0" speed="13.90" length="5.00" shape="204.75,101.65 203.39,101.84 202.42,102.43 201.84,103.39 201.65,104.75"/>
    </edge>
    <edge id=":1/0_4" function="internal">
        <lane id=":1/0_4_0" index="0" speed="13.90" length="9.50" shape="204.75,101.65 195.25,101.65"/>
    </edge>
    <edge id=":1/0_5" function="internal">
        <lane id=":1/0_5_0" index="0" speed="13.90" length="3.18" shape="204.75,101.65 201.95,101.25 201.65,101.07"/>
    </edge>
    <edge id=":1/0_13" function="internal">
        <lane id=":1/0_13_0" index="0" speed="13.90" length="7.14" shape="201.65,101.07 199.95,100.05 198.75,98.05 198.35,95.25"/>
    </edge>
    <edge id=":1/0_6" function="internal">
        <lane id=":1/0_6_0" index="0" speed="13.90" length="5.00" shape="201.65,95.25 201.84,96.61 202.43,97.57 203.39,98.16 204.75,98.35"/>
    </edge>
    <edge id=":1/0_7" function="internal">
        <lane id=":1/0_7_0" index="0" speed="13.90" length="9.50" shape="201.65,95.25 201.65,104.75"/>
    </edge>
    <edge id=":1/0_8" function="internal">
        <lane id=":1/0_8_0" index="0" speed="13.90" length="3.18" shape="201.65,95.25 201.25,98.05 201.07,98.35"/>
    </edge>
    <edge id=":1/0_14" function="internal">
        <lane id=":1/0_14_0" index="0" speed="13.90" length="7.14" shape="201.07,98.35 200.05,100.05 198.05,101.25 195.25,101.65"/>
    </edge>
    <edge id=":1/0_9" function="internal">
        <lane id=":1/0_9_0" index="0" speed="13.90" length="5.00" shape="195.25,98.35 196.61,98.16 197.58,97.57 198.16,96.61 198.35,95.25"/>
    </edge>
    <edge id=":1/0_10" function="internal">
        <lane id=":1/0_10_0" index="0" speed="13.90" length="9.50" shape="195.25,98.35 204.75,98.35"/>
    </edge>
    <edge id=":1/0_11" function="internal">
        <lane id=":1/0_11_0" index="0" speed="13.90" length="3.18" shape="195.25,98.35 198.05,98.75 198.35,98.93"/>
    </edge>
    <edge id=":1/0_15" function="internal">
        <lane id=":1/0_15_0" index="0" speed="13.90" length="7.14" shape="198.35,98.93 200.05,99.95 201.25,101.95 201.65,104.75"/>
    </edge>
    <edge id=":1/1_0" function="internal">
        <lane id=":1/1_0_0" index="0" speed="13.90" length="5.00" shape="198.35,204.75 198.16,203.39 197.57,202.42 196.61,201.84 195.25,201.65"/>
    </edge>
    <edge id=":1/1_1" function="internal">
        <lane id=":1/1_1_0" index="0" speed="13.90" length="9.50" shape="198.35,204.75 198.35,195.25"/>
    </edge>
    <edge id=":1/1_2" function="internal">
        <lane id=":1/1_2_0" index="0" speed="13.90" length="3.18" shape="198.35,204.75 198.75,201.95 198.93,201.65"/>
    </edge>
    <edge id=":1/1_12" function="internal">
        <lane id=":1/1_12_0" index="0" speed="13.90" length="7.14" shape="198.93,201.65 199.95,199.95 201.95,198.75 204.75,198.35"/>
    </edge>
    <edge id=":1/1_3" function="internal">
        <lane id=":1/1_3_0" index="0" speed="13.90" length="5.00" shape="204.75,201.65 203.39,201.84 202.43,202.43 201.84,203.39 201.65,204.75"/>
    </edge>
    <edge id=":1/1_4" function="internal">
        <lane id=":1/1_4_0" index="0" speed="13.90" length="9.50" shape="204.75,201.65 195.25,201.65"/>
    </edge>
    <edge id=":1/1_5" function="internal">
        <lane id=":1/1_5_0" index="0" speed="13.90" length="3.18" shape="204.75,201.65 201.95,201.25 201.65,201.07"/>
    </edge>
    <edge id=":1/1_13" function="internal">
        <lane id=":1/1_13_0" index="0" speed="13.90" length="7.14" shape="201.65,201.07 199.95,200.05 198.75,198.05 198.35,195.25"/>
    </edge>
    <edge id=":1/1_6" function="internal">
        <lane id=":1/1_6_0" index="0" speed="13.90" length="5.00" shape="201.65,195.25 201.84,196.61 202.43,197.58 203.39,198.16 204.75,198.35"/>
    </edge>
    <edge id=":1/1_7" function="internal">
        <lane id=":1/1_7_0" index="0" speed="13.90" length="9.50" shape="201.65,195.25 201.65,204.75"/>
    </edge>
    <edge id=":1/1_8" function="internal">
        <lane id=":1/1_8_0" index="0" speed="13.90" length="3.18" shape="201.65,195.25 201.25,198.05 201.07,198.35"/>
    </edge>
    <edge id=":1/1_14" function="internal">
        <lane id=":1/1_14_0" index="0" speed="13.90" length="7.14" shape="201.07,198.35 200.05,200.05 198.05,201.25 195.25,201.65"/>
    </edge>
    <edge id=":1/1_9" function="internal">
        <lane id=":1/1_9_0" index="0" speed="13.90" length="5.00" shape="195.25,198.35 196.61,198.16 197.58,197.57 198.16,196.61 198.35,195.25"/>
    </edge>
    <edge id=":1/1_10" function="internal">
        <lane id=":1/1_10_0" index="0" speed="13.90" length="9.50" shape="195.25,198.35 204.75,198.35"/>
    </edge>
    <edge id=":1/1_11" function="internal">
        <lane id=":1/1_11_0" index="0" speed="13.90" length="3.18" shape="195.25,198.35 198.05,198.75 198.35,198.93"/>
    </edge>
    <edge id=":1/1_15" function="internal">
        <lane id=":1/1_15_0" index="0" speed="13.90" length="7.14" shape="198.35,198.93 200.05,199.95 201.25,201.95 201.65,204.75"/>
    </edge>

    <edge id="0/0to0/1" from="0/0" to="0/1" priority="-1">
        <lane id="0/0to0/1_0" index="0" speed="13.90" length="90.50" shape="101.65,104.75 101.65,195.25"/>
    </edge>
    <edge id="0/0to1/0" from="0/0" to="1/0" priority="-1">
        <lane id="0/0to1/0_0" index="0" speed="13.90" length="90.50" shape="104.75,98.35 195.25,98.35"/>
    </edge>
    <edge id="0/0tobottom0" from="0/0" to="bottom0" priority="-1">
        <lane id="0/0tobottom0_0" index="0" speed="13.90" length="95.25" shape="98.35,95.25 98.35,0.00"/>
    </edge>
    <edge id="0/0toleft0" from="0/0" to="left0" priority="-1">
        <lane id="0/0toleft0_0" index="0" speed="13.90" length="95.25" shape="95.25,101.65 0.00,101.65"/>
    </edge>
    <edge id="0/1to0/0" from="0/1" to="0/0" priority="-1">
        <lane id="0/1to0/0_0" index="0" speed="13.90" length="90.50" shape="98.35,195.25 98.35,104.75"/>
    </edge>
    <edge id="0/1to1/1" from="0/1" to="1/1" priority="-1">
        <lane id="0/1to1/1_0" index="0" speed="13.90" length="90.50" shape="104.75,198.35 195.25,198.35"/>
    </edge>
    <edge id="0/1toleft1" from="0/1" to="left1" priority="-1">
        <lane id="0/1toleft1_0" index="0" speed="13.90" length="95.25" shape="95.25,201.65 0.00,201.65"/>
    </edge>
    <edge id="0/1totop0" from="0/1" to="top0" priority="-1">
        <lane id="0/1totop0_0" index="0" speed="13.90" length="95.25" shape="101.65,204.75 101.65,300.00"/>
    </edge>
    <edge id="1/0to0/0" from="1/0" to="0/0" priority="-1">
        <lane id="1/0to0/0_0" index="0" speed="13.90" length="90.50" shape="195.25,101.65 104.75,101.65"/>
    </edge>
    <edge id="1/0to1/1" from="1/0" to="1/1" priority="-1">
        <lane id="1/0to1/1_0" index="0" speed="13.90" length="90.50" shape="201.65,104.75 201.65,195.25"/>
    </edge>
    <edge id="1/0tobottom1" from="1/0" to="bottom1" priority="-1">
        <lane id="1/0tobottom1_0" index="0" speed="13.90" length="95.25" shape="198.35,95.25 198.35,0.00"/>
    </edge>
    <edge id="1/0toright0" from="1/0" to="right0" priority="-1">
        <lane id="1/0toright0_0" index="0" speed="13.90" length="95.25" shape="204.75,98.35 300.00,98.35"/>
    </edge>
    <edge id="1/1to0/1" from="1/1" to="0/1" priority="-1">
        <lane id="1/1to0/1_0" index="0" speed="13.90" length="90.50" shape="195.25,201.65 104.75,201.65"/>
    </edge>
    <edge id="1/1to1/0" from="1/1" to="1/0" priority="-1">
        <lane id="1/1to1/0_0" index="0" speed="13.90" length="90.50" shape="198.35,195.25 198.35,104.75"/>
    </edge>
    <edge id="1/1toright1" from="1/1" to="right1" priority="-1">
        <lane id="1/1toright1_0" index="0" speed="13.90" length="95.25" shape="204.75,198.35 300.00,198.35"/>
    </edge>
    <edge id="1/1totop1" from="1/1" to="top1" priority="-1">
        <lane id="1/1totop1_0" index="0" speed="13.90" length="95.25" shape="201.65,204.75 201.65,300.00"/>
    </edge>
    <edge id="bottom0to0/0" from="bottom0" to="0/0" priority="-1">
        <lane id="bottom0to0/0_0" index="0" speed="13.90" length="95.25" shape="101.65,0.00 101.65,95.25"/>
    </edge>
    <edge id="bottom1to1/0" from="bottom1" to="1/0" priority="-1">
        <lane id="bottom1to1/0_0" index="0" speed="13.90" length="95.25" shape="201.65,0.00 201.65,95.25"/>
    </edge>
    <edge id="left0to0/0" from="left0" to="0/0" priority="-1">
        <lane id="left0to0/0_0" index="0" speed="13.90" length="95.25" shape="0.00,98.35 95.25,98.35"/>
    </edge>
    <edge id="left1to0/1" from="left1" to="0/1" priority="-1">
        <lane id="left1to0/1_0" index="0" speed="13.90" length="95.25" shape="0.00,198.35 95.25,198.35"/>
    </edge>
    <edge id="right0to1/0" from="right0" to="1/0" priority="-1">
        <lane id="right0to1/0_0" index="0" speed="13.90" length="95.25" shape="300.00,101.65 204.75,101.65"/>
    </edge>
    <edge id="right1to1/1" from="right1" to="1/1" priority="-1">
        <lane id="right1to1/1_0" index="0" speed="13.90" length="95.25" shape="300.00,201.65 204.75,201.65"/>
    </edge>
    <edge id="top0to0/1" from="top0" to="0/1" priority="-1">
        <lane id="top0to0/1_0" index="0" speed="13.90" length="95.25" shape="98.35,300.00 98.35,204.75"/>
    </edge>
    <edge id="top1to1/1" from="top1" to="1/1" priority="-1">
        <lane id="top1to1/1_0" index="0" speed="13.90" length="95.25" shape="198.35,300.00 198.35,204.75"/>
    </edge>

    <tlLogic id="0/0" type="static" programID="0" offset="0">
        <phase duration="31" state="rrrGGgrrrGGg"/>
        <phase duration="4" state="rrryygrrryyg"/>
        <phase duration="6" state="rrrrrGrrrrrG"/>
        <phase duration="4" state="rrrrryrrrrry"/>
        <phase duration="31" state="GGgrrrGGgrrr"/>
        <phase duration="4" state="yygrrryygrrr"/>
        <phase duration="6" state="rrGrrrrrGrrr"/>
        <phase duration="4" state="rryrrrrryrrr"/>
    </tlLogic>
    <tlLogic id="0/1" type="static" programID="0" offset="0">
        <phase duration="31" state="GGgrrrGGgrrr"/>
        <phase duration="4" state="yygrrryygrrr"/>
        <phase duration="6" state="rrGrrrrrGrrr"/>
        <phase duration="4" state="rryrrrrryrrr"/>
        <phase duration="31" state="rrrGGgrrrGGg"/>
        <phase duration="4" state="rrryygrrryyg"/>
        <phase duration="6" state="rrrrrGrrrrrG"/>
        <phase duration="4" state="rrrrryrrrrry"/>
    </tlLogic>
    <tlLogic id="1/0" type="static" programID="0" offset="0">
        <phase duration="31" state="rrrGGgrrrGGg"/>
        <phase duration="4" state="rrryygrrryyg"/>
        <phase duration="6" state="rrrrrGrrrrrG"/>
        <phase duration="4" state="rrrrryrrrrry"/>
        <phase duration="31" state="GGgrrrGGgrrr"/>
        <phase duration="4" state="yygrrryygrrr"/>
        <phase duration="6" state="rrGrrrrrGrrr"/>
        <phase duration="4" state="rryrrrrryrrr"/>
    </tlLogic>
    <tlLogic id="1/1" type="static" programID="0" offset="0">
        <phase duration="31" state="GGgrrrGGgrrr"/>
        <phase duration="4" state="yygrrryygrrr"/>
        <phase duration="6" state="rrGrrrrrGrrr"/>
        <phase duration="4" state="rryrrrrryrrr"/>
        <phase duration="31" state="rrrGGgrrrGGg"/>
        <phase duration="4" state="rrryygrrryyg"/>
        <phase duration="6" state="rrrrrGrrrrrG"/>
        <phase duration="4" state="rrrrryrrrrry"/>
    </tlLogic>

    <junction id="0/0" type="traffic_light" x="100.00" y="100.00" incLanes="0/1to0/0_0 1/0to0/0_0 bottom0to0/0_0 left0to0/0_0" intLanes=":0/0_0_0 :0/0_1_0 :0/0_12_0 :0/0_3_0 :0/0_4_0 :0/0_13_0 :0/0_6_0 :0/0_7_0 :0/0_14_0 :0/0_9_0 :0/0_10_0 :0/0_15_0" shape="96.75,104.75 103.25,104.75 104.75,103.25 104.75,96.75 103.25,95.25 96.75,95.25 95.25,96.75 95.25,103.25">
        <request index="0" response="000000000000" foes="000100010000" cont="0"/>
        <request index="1" response="000000000000" foes="111100110000" cont="0"/>
        <request index="2" response="000011000000" foes="110011110000" cont="1"/>
        <request index="3" response="000010000000" foes="100010000000" cont="0"/>
        <request index="4" response="000110000111" foes="100110000111" cont="0"/>
        <request index="5" response="011110000110" foes="011110000110" cont="1"/>
        <request index="6" response="000000000000" foes="010000000100" cont="0"/>
        <request index="7" response="000000000000" foes="110000111100" cont="0"/>
        <request index="8" response="000000000011" foes="110000110011" cont="1"/>
        <request index="9" response="000000000010" foes="000000100010" cont="0"/>
        <request index="10" response="000111000110" foes="000111100110" cont="0"/>
        <request index="11" response="000110011110" foes="000110011110" cont="1"/>
    </junction>
    <junction id="0/1" type="traffic_light" x="100.00" y="200.00" incLanes="top0to0/1_0 1/1to0/1_0 0/0to0/1_0 left1to0/1_0" intLanes=":0/1_0_0 :0/1_1_0 :0/1_12_0 :0/1_3_0 :0/1_4_0 :0/1_13_0 :0/1_6_0 :0/1_7_0 :0/1_14_0 :0/1_9_0 :0/1_10_0 :0/1_15_0" shape="96.75,204.75 103.25,204.75 104.75,203.25 104.75,196.75 103.25,195.25 96.75,195.25 95.25,196.75 95.25,203.25">
        <request index="0" response="000000000000" foes="000100010000" cont="0"/>
        <request index="1" response="000000000000" foes="111100110000" cont="0"/>
        <request index="2" response="000011000000" foes="110011110000" cont="1"/>
        <request index="3" response="000010000000" foes="100010000000" cont="0"/>
        <request index="4" response="000110000111" foes="100110000111" cont="0"/>
        <request index="5" response="011110000110" foes="011110000110" cont="1"/>
        <request index="6" response="000000000000" foes="010000000100" cont="0"/>
        <request index="7" response="000000000000" foes="110000111100" cont="0"/>
        <request index="8" response="000000000011" foes="110000110011" cont="1"/>
        <request index="9" response="000000000010" foes="000000100010" cont="0"/>
        <request index="10" response="000111000110" foes="000111100110" cont="0"/>
        <request index="11" response="000110011110" foes="000110011110" cont="1"/>
    </junction>
    <junction id="1/0" type="traffic_light" x="200.00" y="100.00" incLanes="1/1to1/0_0 right0to1/0_0 bottom1to1/0_0 0/0to1/0_0" intLanes=":1/0_0_0 :1/0_1_0 :1/0_12_0 :1/0_3_0 :1/0_4_0 :1/0_13_0 :1/0_6_0 :1/0_7_0 :1/0_14_0 :1/0_9_0 :1/0_10_0 :1/0_15_0" shape="196.75,104.75 203.25,104.75 204.75,103.25 204.75,96.75 203.25,95.25 196.75,95.25 195.25,96.75 195.25,103.25">
        <request index="0" response="000000000000" foes="000100010000" cont="0"/>
        <request index="1" response="000000000000" foes="111100110000" cont="0"/>
        <request index="2" response="000011000000" foes="110011110000" cont="1"/>
        <request index="3" response="000010000000" foes="100010000000" cont="0"/>
        <request index="4" response="000110000111" foes="100110000111" cont="0"/>
        <request index="5" response="011110000110" foes="011110000110" cont="1"/>
        <request index="6" response="000000000000" foes="010000000100" cont="0"/>
        <request index="7" response="000000000000" foes="110000111100" cont="0"/>
        <request index="8" response="000000000011" foes="110000110011" cont="1"/>
        <request index="9" response="000000000010" foes="000000100010" cont="0"/>
        <request index="10" response="000111000110" foes="000111100110" cont="0"/>
        <request index="11" response="000110011110" foes="000110011110" cont="1"/>
    </junction>
    <junction id="1/1" type="traffic_light" x="200.00" y="200.00" incLanes="top1to1/1_0 right1to1/1_0 1/0to1/1_0 0/1to1/1_0" intLanes=":1/1_0_0 :1/1_1_0 :1/1_12_0 :1/1_3_0 :1/1_4_0 :1/1_13_0 :1/1_6_0 :1/1_7_0 :1/1_14_0 :1/1_9_0 :1/1_10_0 :1/1_15_0" shape="196.75,204.75 203.25,204.75 204.75,203.25 204.75,196.75 203.25,195.25 196.75,195.25 195.25,196.75 195.25,203.25">
        <request index="0" response="000000000000" foes="000100010000" cont="0"/>
        <request index="1" response="000000000000" foes="111100110000" cont="0"/>
        <request index="2" response="000011000000" foes="110011110000" cont="1"/>
        <request index="3" response="000010000000" foes="100010000000" cont="0"/>
        <request index="4" response="000110000111" foes="100110000111" cont="0"/>
        <request index="5" response="011110000110" foes="011110000110" cont="1"/>
        <request index="6" response="000000000000" foes="010000000100" cont="0"/>
        <request index="7" response="000000000000" foes="110000111100" cont="0"/>
        <request index="8" response="000000000011" foes="110000110011" cont="1"/>
        <request index="9" response="000000000010" foes="000000100010" cont="0"/>
        <request index="10" response="000111000110" foes="000111100110" cont="0"/>
        <request index="11" response="000110011110" foes="000110011110" cont="1"/>
    </junction>
    <junction id="bottom0" type="dead_end" x="100.00" y="0.00" incLanes="0/0tobottom0_0" intLanes="" shape="100.05,-0.00 103.25,-0.00 96.75,0.00 99.95,0.00"/>
    <junction id="bottom1" type="dead_end" x="200.00" y="0.00" incLanes="1/0tobottom1_0" intLanes="" shape="200.05,-0.00 203.25,-0.00 196.75,0.00 199.95,0.00"/>
    <junction id="left0" type="dead_end" x="0.00" y="100.00" incLanes="0/0toleft0_0" intLanes="" shape="-0.00,99.95 -0.00,96.75 0.00,103.25 0.00,100.05"/>
    <junction id="left1" type="dead_end" x="0.00" y="200.00" incLanes="0/1toleft1_0" intLanes="" shape="-0.00,199.95 -0.00,196.75 0.00,203.25 0.00,200.05"/>
    <junction id="right0" type="dead_end" x="300.00" y="100.00" incLanes="1/0toright0_0" intLanes="" shape="300.00,100.05 300.00,103.25 300.00,96.75 300.00,99.95"/>
    <junction id="right1" type="dead_end" x="300.00" y="200.00" incLanes="1/1toright1_0" intLanes="" shape="300.00,200.05 300.00,203.25 300.00,196.75 300.00,199.95"/>
    <junction id="top0" type="dead_end" x="100.00" y="300.00" incLanes="0/1totop0_0" intLanes="" shape="99.95,300.00 96.75,300.00 103.25,300.00 100.05,300.00"/>
    <junction id="top1" type="dead_end" x="200.00" y="300.00" incLanes="1/1totop1_0" intLanes="" shape="199.95,300.00 196.75,300.00 203.25,300.00 200.05,300.00"/>

    <junction id=":0/0_12_0" type="internal" x="98.93" y="101.65" incLanes=":0/0_2_0 bottom0to0/0_0" intLanes=":0/0_4_0 :0/0_5_0 :0/0_6_0 :0/0_7_0 :0/0_10_0 :0/0_11_0"/>
    <junction id=":0/0_13_0" type="internal" x="101.65" y="101.07" incLanes=":0/0_5_0 0/1to0/0_0 bottom0to0/0_0 left0to0/0_0" intLanes=":0/0_1_0 :0/0_2_0 :0/0_7_0 :0/0_8_0 :0/0_9_0 :0/0_10_0"/>
    <junction id=":0/0_14_0" type="internal" x="101.07" y="98.35" incLanes=":0/0_8_0 0/1to0/0_0" intLanes=":0/0_0_0 :0/0_1_0 :0/0_4_0 :0/0_5_0 :0/0_10_0 :0/0_11_0"/>
    <junction id=":0/0_15_0" type="internal" x="98.35" y="98.93" incLanes=":0/0_11_0 0/1to0/0_0 1/0to0/0_0 bottom0to0/0_0" intLanes=":0/0_1_0 :0/0_2_0 :0/0_3_0 :0/0_4_0 :0/0_7_0 :0/0_8_0"/>
    <junction id=":0/1_12_0" type="internal" x="98.93" y="201.65" incLanes=":0/1_2_0 0/0to0/1_0" intLanes=":0/1_4_0 :0/1_5_0 :0/1_6_0 :0/1_7_0 :0/1_10_0 :0/1_11_0"/>
    <junction id=":0/1_13_0" type="internal" x="101.65" y="201.07" incLanes=":0/1_5_0 0/0to0/1_0 left1to0/1_0 top0to0/1_0" intLanes=":0/1_1_0 :0/1_2_0 :0/1_7_0 :0/1_8_0 :0/1_9_0 :0/1_10_0"/>
    <junction id=":0/1_14_0" type="internal" x="101.07" y="198.35" incLanes=":0/1_8_0 top0to0/1_0" intLanes=":0/1_0_0 :0/1_1_0 :0/1_4_0 :0/1_5_0 :0/1_10_0 :0/1_11_0"/>
    <junction id=":0/1_15_0" type="internal" x="98.35" y="198.93" incLanes=":0/1_11_0 0/0to0/1_0 1/1to0/1_0 top0to0/1_0" intLanes=":0/1_1_0 :0/1_2_0 :0/1_3_0 :0/1_4_0 :0/1_7_0 :0/1_8_0"/>
    <junction id=":1/0_12_0" type="internal" x="198.93" y="101.65" incLanes=":1/0_2_0 bottom1to1/0_0" intLanes=":1/0_4_0 :1/0_5_0 :1/0_6_0 :1/0_7_0 :1/0_10_0 :1/0_11_0"/>
    <junction id=":1/0_13_0" type="internal" x="201.65" y="101.07" incLanes=":1/0_5_0 0/0to1/0_0 1/1to1/0_0 bottom1to1/0_0" intLanes=":1/0_1_0 :1/0_2_0 :1/0_7_0 :1/0_8_0 :1/0_9_0 :1/0_10_0"/>
    <junction id=":1/0_14_0" type="internal" x="201.07" y="98.35" incLanes=":1/0_8_0 1/1to1/0_0" intLanes=":1/0_0_0 :1/0_1_0 :1/0_4_0 :1/0_5_0 :1/0_10_0 :1/0_11_0"/>
    <junction id=":1/0_15_0" type="internal" x="198.35" y="98.93" incLanes=":1/0_11_0 1/1to1/0_0 bottom1to1/0_0 right0to1/0_0" intLanes=":1/0_1_0 :1/0_2_0 :1/0_3_0 :1/0_4_0 :1/0_7_0 :1/0_8_0"/>
    <junction id=":1/1_12_0" type="internal" x="198.93" y="201.65" incLanes=":1/1_2_0 1/0to1/1_0" intLanes=":1/1_4_0 :1/1_5_0 :1/1_6_0 :1/1_7_0 :1/1_10_0 :1/1_11_0"/>
    <junction id=":1/1_13_0" type="internal" x="201.65" y="201.07" incLanes=":1/1_5_0 0/1to1/1_0 1/0to1/1_0 top1to1/1_0" intLanes=":1/1_1_0 :1/1_2_0 :1/1_7_0 :1/1_8_0 :1/1_9_0 :1/1_10_0"/>
    <junction id=":1/1_14_0" type="internal" x="201.07" y="198.35" incLanes=":1/1_8_0 top1to1/1_0" intLanes=":1/1_0_0 :1/1_1_0 :1/1_4_0 :1/1_5_0 :1/1_10_0 :1/1_11_0"/>
    <junction id=":1/1_15_0" type="internal" x="198.35" y="198.93" incLanes=":1/1_11_0 1/0to1/1_0 right1to1/1_0 top1to1/1_0" intLanes=":1/1_1_0 :1/1_2_0 :1/1_3_0 :1/1_4_0 :1/1_7_0 :1/1_8_0"/>

    <connection from="0/0to0/1" to="0/1to1/1" fromLane="0" toLane="0" via=":0/1_6_0" tl="0/1" linkIndex="6" dir="r" state="o"/>
    <connection from="0/0to0/1" to="0/1totop0" fromLane="0" toLane="0" via=":0/1_7_0" tl="0/1" linkIndex="7" dir="s" state="o"/>
    <connection from="0/0to0/1" to="0/1toleft1" fromLane="0" toLane="0" via=":0/1_8_0" tl="0/1" linkIndex="8" dir="l" state="o"/>
    <connection from="0/0to1/0" to="1/0tobottom1" fromLane="0" toLane="0" via=":1/0_9_0" tl="1/0" linkIndex="9" dir="r" state="o"/>
    <connection from="0/0to1/0" to="1/0toright0" fromLane="0" toLane="0" via=":1/0_10_0" tl="1/0" linkIndex="10" dir="s" state="o"/>
    <connection from="0/0to1/0" to="1/0to1/1" fromLane="0" toLane="0" via=":1/0_11_0" tl="1/0" linkIndex="11" dir="l" state="o"/>
    <connection from="0/1to0/0" to="0/0toleft0" fromLane="0" toLane="0" via=":0/0_0_0" tl="0/0" linkIndex="0" dir="r" state="o"/>
    <connection from="0/1to0/0" to="0/0tobottom0" fromLane="0" toLane="0" via=":0/0_1_0" tl="0/0" linkIndex="1" dir="s" state="o"/>
    <connection from="0/1to0/0" to="0/0to1/0" fromLane="0" toLane="0" via=":0/0_2_0" tl="0/0" linkIndex="2" dir="l" state="o"/>
    <connection from="0/1to1/1" to="1/1to1/0" fromLane="0" toLane="0" via=":1/1_9_0" tl="1/1" linkIndex="9" dir="r" state="o"/>
    <connection from="0/1to1/1" to="1/1toright1" fromLane="0" toLane="0" via=":1/1_10_0" tl="1/1" linkIndex="10" dir="s" state="o"/>
    <connection from="0/1to1/1" to="1/1totop1" fromLane="0" toLane="0" via=":1/1_11_0" tl="1/1" linkIndex="11" dir="l" state="o"/>