<routes>
<vType id="typeCar" accel="0.8" decel="4.5" sigma="0.5" length="5" minGap="2.5" maxSpeed="25" guiShape="passenger"/>
<vType id="typeBus" accel="0.8" decel="4.5" sigma="0.5" length="17" minGap="3" maxSpeed="25" guiShape="bus"/>

<route id="bottom0totop0" edges="bottom0to0/0 0/0to0/1 0/1totop0" />
<route id="bottom0totop1" edges="bottom0to0/0 0/0to1/0 1/0to1/1 1/1totop1" />
<route id="bottom0toright1" edges="bottom0to0/0 0/0to1/0 1/0to1/1 1/1toright1" />
<route id="left0toright1" edges="left0to0/0 0/0to1/0 1/0to1/1 1/1toright1" />
<route id="top0toright0" edges="top0to0/1 0/1to1/1 1/1to1/0 1/0toright0" />
<route id="top1toleft1" edges="top1to1/1 1/1to0/1 0/1toleft1" />

    <vehicle id="0" type="typeCar" route="bottom0totop1" depart="1" />
    <vehicle id="1" type="typeCar" route="bottom0totop1" depart="2" />
    <vehicle id="2" type="typeCar" route="bottom0toright1" depart="2" />
    <vehicle id="3" type="typeCar" route="left0toright1" depart="16" />
    <vehicle id="4" type="typeCar" route="bottom0totop1" depart="18" />
    <vehicle id="5" type="typeCar" route="left0toright1" depart="20" />
    <vehicle id="6" type="typeCar" route="left0toright1" depart="21" />
    <vehicle id="7" type="typeCar" route="left0toright1" depart="22" />
    <vehicle id="8" type="typeCar" route="top1toleft1" depart="25" />
    <vehicle id="9" type="typeCar" route="left0toright1" depart="30" />
    <vehicle id="10" type="typeCar" route="top1toleft1" depart="31" />
    <vehicle id="11" type="typeCar" route="bottom0totop1" depart="33" />
    <vehicle id="12" type="typeCar" route="bottom0totop1" depart="42" />
    <vehicle id="13" type="typeCar" route="bottom0totop1" depart="43" />
    <vehicle id="14" type="typeCar" route="left0toright1" depart="44" />
    <vehicle id="15" type="typeCar" route="left0toright1" depart="57" />
    <vehicle id="16" type="typeCar" route="top1toleft1" depart="57" />
    <vehicle id="17" type="typeCar" route="bottom0toright1" depart="59" />
    <vehicle id="18" type="typeCar" route="bottom0toright1" depart="74" />
    <vehicle id="19" type="typeCar" route="bottom0totop0" depart="76" />
    <vehicle id="20" type="typeCar" route="bottom0totop0" depart="85" />
    <vehicle id="21" type="typeCar" route="left0toright1" depart="88" />
    <vehicle id="22" type="typeCar" route="bottom0totop0" depart="98" />
    <vehicle id="23" type="typeCar" route="bottom0totop1" depart="99" />
    <vehicle id="24" type="typeCar" route="bottom0totop1" depart="101" />
    <vehicle id="25" type="typeCar" route="bottom0totop1" depart="106" />
    <vehicle id="26" type="typeCar" route="top1toleft1" depart="118" />
    <vehicle id="27" type="typeCar" route="bottom0totop1" depart="119" />
    <vehicle id="28" type="typeCar" route="left0toright1" depart="120" />
    <vehicle id="29" type="typeCar" route="bottom0totop1" depart="122" />
    <vehicle id="30" type="typeCar" route="top1toleft1" depart="122" />
    <vehicle id="31" type="typeCar" route="left0toright1" depart="125" />
    <vehicle id="32" type="typeCar" route="bottom0totop1" depart="127" />
    <vehicle id="33" type="typeCar" route="bottom0toright1" depart="133" />
    <vehicle id="34" type="typeCar" route="left0toright1" depart="134" />
    <vehicle id="35" type="typeCar" route="bottom0toright1" depart="139" />
    <vehicle id="36" type="typeCar" route="bottom0totop1" depart="158" />
    <vehicle id="37" type="typeCar" route="left0toright1" depart="158" />
    <vehicle id="38" type="typeCar" route="bottom0totop1" depart="167" />
    <vehicle id="39" type="typeCar" route="bottom0totop1" depart="179" />
    <vehicle id="40" type="typeCar" route="bottom0totop1" depart="180" />
    <vehicle id="41" type="typeCar" route="bottom0totop1" depart="182" />
    <vehicle id="42" type="typeCar" route="bottom0toright1" depart="185" />
    <vehicle id="43" type="typeCar" route="bottom0totop1" depart="187" />
    <vehicle id="44" type="typeCar" route="bottom0totop0" depart="191" />
    <vehicle id="45" type="typeCar" route="left0toright1" depart="192" />
    <vehicle id="46" type="typeCar" route="bottom0totop1" depart="194" />
    <vehicle id="47" type="typeCar" route="bottom0totop1" depart="202" />
    <vehicle id="48" type="typeCar" route="left0toright1" depart="205" />
    <vehicle id="49" type="typeCar" route="left0toright1" depart="208" />
    <vehicle id="50" type="typeCar" route="left0toright1" depart="213" />
    <vehicle id="51" type="typeCar" route="left0toright1" depart="216" />
    <vehicle id="52" type="typeCar" route="top1toleft1" depart="216" />
    <vehicle id="53" type="typeCar" route="top1toleft1" depart="218" />
    <vehicle id="54" type="typeCar" route="bottom0totop1" depart="222" />
    <vehicle id="55" type="typeCar" route="bottom0totop1" depart="223" />
    <vehicle id="56" type="typeCar" route="bottom0totop0" depart="227" />
    <vehicle id="57" type="typeCar" route="bottom0totop1" depart="227" />
    <vehicle id="58" type="typeCar" route="top1toleft1" depart="236" />
    <vehicle id="59" type="typeCar" route="bottom0totop0" depart="239" />
    <vehicle id="60" type="typeCar" route="left0toright1" depart="242" />
    <vehicle id="61" type="typeCar" route="bottom0totop1" depart="243" />
    <vehicle id="62" type="typeCar" route="bottom0totop1" depart="250" />
    <vehicle id="63" type="typeCar" route="left0toright1" depart="259" />
    <vehicle id="64" type="typeCar" route="bottom0toright1" depart="264" />
    <vehicle id="65" type="typeCar" route="top1toleft1" depart="264" />
    <vehicle id="66" type="typeCar" route="bottom0totop0" depart="266" />
    <vehicle id="67" type="typeCar" route="left0toright1" depart="269" />
    <vehicle id="68" type="typeCar" route="bottom0totop1" depart="271" />
    <vehicle id="69" type="typeCar" route="left0toright1" depart="271" />
    <vehicle id="70" type="typeCar" route="bottom0totop1" depart="273" />
    <vehicle id="71" type="typeCar" route="left0toright1" depart="273" />
    <vehicle id="72" type="typeCar" route="bottom0totop1" depart="274" />
    <vehicle id="73" type="typeCar" route="bottom0toright1" depart="274" />
    <vehicle id="74" type="typeCar" route="bottom0totop0" depart="277" />
    <vehicle id="75" type="typeCar" route="top0toright0" depart="278" />
    <vehicle id="76" type="typeCar" route="bottom0toright1" depart="280" />
    <vehicle id="77" type="typeCar" route="left0toright1" depart="282" />
    <vehicle id="78" type="typeCar" route="bottom0totop0" depart="287" />
    <vehicle id="79" type="typeCar" route="left0toright1" depart="288" />
    <vehicle id="80" type="typeCar" route="bottom0totop1" depart="290" />
    <vehicle id="81" type="typeCar" route="bottom0totop1" depart="301" />
    <vehicle id="82" type="typeCar" route="bottom0totop1" depart="303" />
    <vehicle id="83" type="typeCar" route="bottom0totop1" depart="308" />
    <vehicle id="84" type="typeCar" route="top0toright0" depart="311" />
    <vehicle id="85" type="typeCar" route="left0toright1" depart="313" />
    <vehicle id="86" type="typeCar" route="left0toright1" depart="314" />
    <vehicle id="87" type="typeCar" route="bottom0totop0" depart="315" />
    <vehicle id="88" type="typeCar" route="left0toright1" depart="316" />
    <vehicle id="89" type="typeCar" route="bottom0totop1" depart="318" />
    <vehicle id="90" type="typeCar" route="bottom0totop0" depart="324" />
    <vehicle id="91" type="typeCar" route="left0toright1" depart="325" />
    <vehicle id="92" type="typeCar" route="bottom0totop1" depart="333" />
    <vehicle id="93" type="typeCar" route="left0toright1" depart="333" />
    <vehicle id="94" type="typeCar" route="bottom0totop1" depart="334" />
    <vehicle id="95" type="typeCar" route="left0toright1" depart="335" />
    <vehicle id="96" type="typeCar" route="left0toright1" depart="339" />
    <vehicle id="97" type="typeCar" route="bottom0totop1" depart="340" />
    <vehicle id="98" type="typeCar" route="left0toright1" depart="342" />
    <vehicle id="99" type="typeCar" route="left0toright1" depart="343" />
    <vehicle id="100" type="typeCar" route="bottom0totop1" depart="351" />
    <vehicle id="101" type="typeCar" route="left0toright1" depart="352" />
    <vehicle id="102" type="typeCar" route="bottom0toright1" depart="355" />
    <vehicle id="103" type="typeCar" route="bottom0totop0" depart="357" />
    <vehicle id="104" type="typeCar" route="left0toright1" depart="364" />
    <vehicle id="105" type="typeCar" route="top1toleft1" depart="364" />
    <vehicle id="106" type="typeCar" route="left0toright1" depart="365" />
    <vehicle id="107" type="typeCar" route="bottom0totop1" depart="367" />
    <vehicle id="108" type="typeCar" route="bottom0toright1" depart="372" />
    <vehicle id="109" type="typeCar" route="bottom0totop0" depart="373" />
    <vehicle id="110" type="typeCar" route="bottom0totop1" depart="373" />
    <vehicle id="111" type="typeCar" route="bottom0totop1" depart="379" />
    <vehicle id="112" type="typeCar" route="left0toright1" depart="379" />
    <vehicle id="113" type="typeCar" route="bottom0totop1" depart="381" />
    <vehicle id="114" type="typeCar" route="bottom0totop1" depart="388" />
    <vehicle id="115" type="typeCar" route="left0toright1" depart="389" />
    <vehicle id="116" type="typeCar" route="bottom0totop1" depart="396" />
    <vehicle id="117" type="typeCar" route="left0toright1" depart="396" />
    <vehicle id="118" type="typeCar" route="left0toright1" depart="397" />
    <vehicle id="119" type="typeCar" route="bottom0totop0" depart="400" />
    <vehicle id="120" type="typeCar" route="bottom0totop1" depart="403" />
    <vehicle id="121" type="typeCar" route="bottom0toright1" depart="406" />
    <vehicle id="122" type="typeCar" route="left0toright1" depart="407" />
    <vehicle id="123" type="typeCar" route="bottom0totop1" depart="409" />
    <vehicle id="124" type="typeCar" route="top0toright0" depart="410" />
    <vehicle id="125" type="typeCar" route="left0toright1" depart="411" />
    <vehicle id="126" type="typeCar" route="top1toleft1" depart="413" />
    <vehicle id="127" type="typeCar" route="bottom0totop1" depart="416" />
    <vehicle id="128" type="typeCar" route="left0toright1" depart="417" />
    <vehicle id="129" type="typeCar" route="bottom0totop1" depart="418" />
    <vehicle id="130" type="typeCar" route="top0toright0" depart="420" />
    <vehicle id="131" type="typeCar" route="left0toright1" depart="423" />
    <vehicle id="132" type="typeCar" route="bottom0totop0" depart="425" />
    <vehicle id="133" type="typeCar" route="bottom0totop0" depart="427" />
    <vehicle id="134" type="typeCar" route="bottom0totop1" depart="428" />
    <vehicle id="135" type="typeCar" route="left0toright1" depart="432" />
    <vehicle id="136" type="typeCar" route="top0toright0" depart="434" />
    <vehicle id="137" type="typeCar" route="bottom0totop1" depart="436" />
    <vehicle id="138" type="typeCar" route="bottom0toright1" depart="443" />
    <vehicle id="139" type="typeCar" route="left0toright1" depart="449" />
    <vehicle id="140" type="typeCar" route="left0toright1" depart="452" />
    <vehicle id="141" type="typeCar" route="bottom0toright1" depart="456" />
    <vehicle id="142" type="typeCar" route="bottom0toright1" depart="461" />
    <vehicle id="143" type="typeCar" route="top1toleft1" depart="461" />
    <vehicle id="144" type="typeCar" route="left0toright1" depart="462" />
    <vehicle id="145" type="typeCar" route="bottom0toright1" depart="464" />
    <vehicle id="146" type="typeCar" route="top0toright0" depart="464" />
    <vehicle id="147" type="typeCar" route="bottom0totop0" depart="471" />
    <vehicle id="148" type="typeCar" route="bottom0toright1" depart="471" />
    <vehicle id="149" type="typeCar" route="left0toright1" depart="471" />
    <vehicle id="150" type="typeCar" route="left0toright1" depart="476" />
    <vehicle id="151" type="typeCar" route="left0toright1" depart="479" />
    <vehicle id="152" type="typeCar" route="left0toright1" depart="483" />
    <vehicle id="153" type="typeCar" route="bottom0totop0" depart="492" />
    <vehicle id="154" type="typeCar" route="left0toright1" depart="494" />
    <vehicle id="155" type="typeCar" route="top0toright0" depart="498" />
    <vehicle id="156" type="typeCar" route="left0toright1" depart="500" />
    <vehicle id="157" type="typeCar" route="bottom0toright1" depart="506" />
    <vehicle id="158" type="typeCar" route="top0toright0" depart="509" />
    <vehicle id="159" type="typeCar" route="left0toright1" depart="510" />
    <vehicle id="160" type="typeCar" route="left0toright1" depart="515" />
    <vehicle id="161" type="typeCar" route="bottom0totop0" depart="521" />
    <vehicle id="162" type="typeCar" route="left0toright1" depart="521" />
    <vehicle id="163" type="typeCar" route="bottom0totop1" depart="522" />
    <vehicle id="164" type="typeCar" route="bottom0totop1" depart="529" />
    <vehicle id="165" type="typeCar" route="bottom0toright1" depart="529" />
    <vehicle id="166" type="typeCar" route="top1toleft1" depart="531" />
    <vehicle id="167" type="typeCar" route="top0toright0" depart="532" />
    <vehicle id="168" type="typeCar" route="bottom0totop0" depart="534" />
    <vehicle id="169" type="typeCar" route="bottom0totop0" depart="537" />
    <vehicle id="170" type="typeCar" route="bottom0totop1" depart="537" />
    <vehicle id="171" type="typeCar" route="bottom0toright1" depart="538" />
    <vehicle id="172" type="typeCar" route="left0toright1" depart="541" />
    <vehicle id="173" type="typeCar" route="left0toright1" depart="543" />
    <vehicle id="174" type="typeCar" route="bottom0toright1" depart="544" />
    <vehicle id="175" type="typeCar" route="bottom0totop0" depart="549" />
    <vehicle id="176" type="typeCar" route="bottom0totop1" depart="549" />
    <vehicle id="177" type="typeCar" route="bottom0totop1" depart="550" />
    <vehicle id="178" type="typeCar" route="bottom0totop1" depart="552" />
    <vehicle id="179" type="typeCar" route="left0toright1" depart="552" />
    <vehicle id="180" type="typeCar" route="bottom0totop1" depart="555" />
    <vehicle id="181" type="typeCar" route="bottom0totop1" depart="557" />
    <vehicle id="182" type="typeCar" route="bottom0totop0" depart="560" />
    <vehicle id="183" type="typeCar" route="bottom0totop1" depart="562" />
    <vehicle id="184" type="typeCar" route="bottom0totop1" depart="563" />
    <vehicle id="185" type="typeCar" route="left0toright1" depart="573" />
    <vehicle id="186" type="typeCar" route="bottom0totop1" depart="574" />
    <vehicle id="187" type="typeCar" route="left0toright1" depart="575" />
    <vehicle id="188" type="typeCar" route="bottom0totop1" depart="596" />
    <vehicle id="189" type="typeCar" route="bottom0totop0" depart="599" />
    <vehicle id="190" type="typeCar" route="left0toright1" depart="600" />
    <vehicle id="191" type="typeCar" route="left0toright1" depart="602" />
    <vehicle id="192" type="typeCar" route="left0toright1" depart="604" />
    <vehicle id="193" type="typeCar" route="bottom0toright1" depart="605" />
    <vehicle id="194" type="typeCar" route="left0toright1" depart="606" />
    <vehicle id="195" type="typeCar" route="left0toright1" depart="614" />
    <vehicle id="196" type="typeCar" route="bottom0totop0" depart="616" />
    <vehicle id="197" type="typeCar" route="bottom0totop1" depart="617" />
    <vehicle id="198" type="typeCar" route="left0toright1" depart="619" />
    <vehicle id="199" type="typeCar" route="left0toright1" depart="622" />
    <vehicle id="200" type="typeCar" route="bottom0totop1" depart="623" />
    <vehicle id="201" type="typeCar" route="left0toright1" depart="628" />
    <vehicle id="202" type="typeCar" route="left0toright1" depart="631" />
    <vehicle id="203" type="typeCar" route="top0toright0" depart="640" />
    <vehicle id="204" type="typeCar" route="bottom0totop1" depart="646" />
    <vehicle id="205" type="typeCar" route="left0toright1" depart="646" />
    <vehicle id="206" type="typeCar" route="top0toright0" depart="647" />
    <vehicle id="207" type="typeCar" route="bottom0totop1" depart="651" />
    <vehicle id="208" type="typeCar" route="bottom0totop1" depart="654" />
    <vehicle id="209" type="typeCar" route="bottom0toright1" depart="661" />
    <vehicle id="210" type="typeCar" route="top0toright0" depart="662" />
    <vehicle id="211" type="typeCar" route="left0toright1" depart="669" />
    <vehicle id="212" type="typeCar" route="bottom0totop0" depart="675" />
    <vehicle id="213" type="typeCar" route="bottom0toright1" depart="679" />
    <vehicle id="214" type="typeCar" route="bottom0totop1" depart="682" />
    <vehicle id="215" type="typeCar" route="bottom0totop0" depart="685" />
    <vehicle id="216" type="typeCar" route="bottom0totop1" depart="685" />
    <vehicle id="217" type="typeCar" route="bottom0totop1" depart="687" />
    <vehicle id="218" type="typeCar" route="left0toright1" depart="687" />
    <vehicle id="219" type="typeCar" route="bottom0totop1" depart="689" />
    <vehicle id="220" type="typeCar" route="bottom0toright1" depart="691" />
    <vehicle id="221" type="typeCar" route="left0toright1" depart="695" />
    <vehicle id="222" type="typeCar" route="top0toright0" depart="695" />
    <vehicle id="223" type="typeCar" route="top1toleft1" depart="695" />
    <vehicle id="224" type="typeCar" route="left0toright1" depart="700" />
    <vehicle id="225" type="typeCar" route="bottom0totop1" depart="701" />
    <vehicle id="226" type="typeCar" route="bottom0totop1" depart="705" />
    <vehicle id="227" type="typeCar" route="bottom0totop1" depart="706" />
    <vehicle id="228" type="typeCar" route="top1toleft1" depart="706" />
    <vehicle id="229" type="typeCar" route="bottom0totop1" depart="710" />
    <vehicle id="230" type="typeCar" route="bottom0totop1" depart="711" />
    <vehicle id="231" type="typeCar" route="left0toright1" depart="711" />
    <vehicle id="232" type="typeCar" route="bottom0totop1" depart="714" />
    <vehicle id="233" type="typeCar" route="left0toright1" depart="718" />
    <vehicle id="234" type="typeCar" route="left0toright1" depart="730" />
    <vehicle id="235" type="typeCar" route="bottom0totop1" depart="733" />
    <vehicle id="236" type="typeCar" route="left0toright1" depart="733" />
    <vehicle id="237" type="typeCar" route="left0toright1" depart="736" />
    <vehicle id="238" type="typeCar" route="left0toright1" depart="738" />
    <vehicle id="239" type="typeCar" route="left0toright1" depart="739" />
    <vehicle id="240" type="typeCar" route="top0toright0" depart="743" />
    <vehicle id="241" type="typeCar" route="bottom0totop1" depart="758" />
    <vehicle id="242" type="typeCar" route="bottom0totop0" depart="759" />
    <vehicle id="243" type="typeCar" route="bottom0totop1" depart="759" />
    <vehicle id="244" type="typeCar" route="bottom0totop1" depart="761" />
    <vehicle id="245" type="typeCar" route="bottom0totop1" depart="772" />
    <vehicle id="246" type="typeCar" route="bottom0totop1" depart="774" />
    <vehicle id="247" type="typeCar" route="bottom0totop1" depart="777" />
    <vehicle id="248" type="typeCar" route="bottom0totop1" depart="778" />
    <vehicle id="249" type="typeCar" route="bottom0totop1" depart="781" />
    <vehicle id="250" type="typeCar" route="left0toright1" depart="789" />
    <vehicle id="251" type="typeCar" route="left0toright1" depart="790" />
    <vehicle id="252" type="typeCar" route="bottom0totop1" depart="792" />
    <vehicle id="253" type="typeCar" route="left0toright1" depart="795" />
    <vehicle id="254" type="typeCar" route="bottom0totop1" depart="801" />
    <vehicle id="255" type="typeCar" route="left0toright1" depart="801" />
    <vehicle id="256" type="typeCar" route="bottom0totop1" depart="803" />
    <vehicle id="257" type="typeCar" route="left0toright1" depart="803" />
    <vehicle id="258" type="typeCar" route="top0toright0" depart="803" />
    <vehicle id="259" type="typeCar" route="bottom0totop1" depart="819" />
    <vehicle id="260" type="typeCar" route="bottom0totop1" depart="824" />
    <vehicle id="261" type="typeCar" route="left0toright1" depart="826" />
    <vehicle id="262" type="typeCar" route="bottom0totop1" depart="827" />
    <vehicle id="263" type="typeCar" route="left0toright1" depart="834" />
    <vehicle id="264" type="typeCar" route="bottom0toright1" depart="841" />
    <vehicle id="265" type="typeCar" route="left0toright1" depart="849" />
    <vehicle id="266" type="typeCar" route="left0toright1" depart="850" />
    <vehicle id="267" type="typeCar" route="left0toright1" depart="851" />
    <vehicle id="268" type="typeCar" route="left0toright1" depart="855" />
    <vehicle id="269" type="typeCar" route="left0toright1" depart="858" />
    <vehicle id="270" type="typeCar" route="top0toright0" depart="858" />
    <vehicle id="271" type="typeCar" route="bottom0toright1" depart="863" />
    <vehicle id="272" type="typeCar" route="left0toright1" depart="863" />
    <vehicle id="273" type="typeCar" route="bottom0toright1" depart="869" />
    <vehicle id="274" type="typeCar" route="bottom0totop1" depart="870" />
    <vehicle id="275" type="typeCar" route="bottom0totop1" depart="871" />
    <vehicle id="276" type="typeCar" route="bottom0totop1" depart="882" />
    <vehicle id="277" type="typeCar" route="left0toright1" depart="883" />
    <vehicle id="278" type="typeCar" route="bottom0totop0" depart="894" />
    <vehicle id="279" type="typeCar" route="left0toright1" depart="896" />
    <vehicle id="280" type="typeCar" route="bottom0totop0" depart="903" />
    <vehicle id="281" type="typeCar" route="left0toright1" depart="903" />
    <vehicle id="282" type="typeCar" route="bottom0totop0" depart="904" />
    <vehicle id="283" type="typeCar" route="left0toright1" depart="904" />
    <vehicle id="284" type="typeCar" route="bottom0totop1" depart="905" />
    <vehicle id="285" type="typeCar" route="left0toright1" depart="908" />
    <vehicle id="286" type="typeCar" route="left0toright1" depart="917" />
    <vehicle id="287" type="typeCar" route="bottom0toright1" depart="918" />
    <vehicle id="288" type="typeCar" route="top1toleft1" depart="919" />
    <vehicle id="289" type="typeCar" route="bottom0totop1" depart="920" />
    <vehicle id="290" type="typeCar" route="left0toright1" depart="921" />
    <vehicle id="291" type="typeCar" route="bottom0totop1" depart="922" />
    <vehicle id="292" type="typeCar" route="bottom0totop1" depart="927" />
    <vehicle id="293" type="typeCar" route="left0toright1" depart="933" />
    <vehicle id="294" type="typeCar" route="top1toleft1" depart="933" />
    <vehicle id="295" type="typeCar" route="bottom0totop0" depart="938" />
    <vehicle id="296" type="typeCar" route="bottom0toright1" depart="946" />
    <vehicle id="297" type="typeCar" route="bottom0totop0" depart="947" />
    <vehicle id="298" type="typeCar" route="bottom0totop1" depart="949" />
    <vehicle id="299" type="typeCar" route="bottom0toright1" depart="949" />
    <vehicle id="300" type="typeCar" route="bottom0totop1" depart="951" />
    <vehicle id="301" type="typeCar" route="bottom0totop1" depart="958" />
    <vehicle id="302" type="typeCar" route="bottom0toright1" depart="959" />
    <vehicle id="303" type="typeCar" route="top1toleft1" depart="960" />
    <vehicle id="304" type="typeCar" route="bottom0totop1" depart="961" />
    <vehicle id="305" type="typeCar" route="bottom0toright1" depart="967" />
    <vehicle id="306" type="typeCar" route="bottom0totop1" depart="968" />
    <vehicle id="307" type="typeCar" route="left0toright1" depart="968" />
    <vehicle id="308" type="typeCar" route="bottom0totop0" depart="974" />
    <vehicle id="309" type="typeCar" route="left0toright1" depart="978" />
    <vehicle id="310" type="typeCar" route="left0toright1" depart="983" />
    <vehicle id="311" type="typeCar" route="top0toright0" depart="992" />
    <vehicle id="312" type="typeCar" route="left0toright1" depart="994" />
    <vehicle id="313" type="typeCar" route="bottom0toright1" depart="997" />
    <vehicle id="314" type="typeCar" route="left0toright1" depart="997" />
    <vehicle id="315" type="typeCar" route="bottom0totop1" depart="998" />
    <vehicle id="316" type="typeCar" route="left0toright1" depart="1000" />
    <vehicle id="317" type="typeCar" route="top1toleft1" depart="1002" />
    <vehicle id="318" type="typeCar" route="bottom0totop0" depart="1017" />
    <vehicle id="319" type="typeCar" route="bottom0totop0" depart="1019" />
    <vehicle id="320" type="typeCar" route="left0toright1" depart="1020" />
    <vehicle id="321" type="typeCar" route="top1toleft1" depart="1024" />
    <vehicle id="322" type="typeCar" route="top1toleft1" depart="1029" />
    <vehicle id="323" type="typeCar" route="left0toright1" depart="1030" />
    <vehicle id="324" type="typeCar" route="left0toright1" depart="1034" />
    <vehicle id="325" type="typeCar" route="top0toright0" depart="1034" />
    <vehicle id="326" type="typeCar" route="bottom0totop1" depart="1037" />
    <vehicle id="327" type="typeCar" route="bottom0totop0" depart="1038" />
    <vehicle id="328" type="typeCar" route="top1toleft1" depart="1042" />
    <vehicle id="329" type="typeCar" route="left0toright1" depart="1043" />
    <vehicle id="330" type="typeCar" route="top1toleft1" depart="1045" />
    <vehicle id="331" type="typeCar" route="left0toright1" depart="1050" />
    <vehicle id="332" type="typeCar" route="bottom0totop0" depart="1051" />
    <vehicle id="333" type="typeCar" route="top1toleft1" depart="1051" />
    <vehicle id="334" type="typeCar" route="bottom0totop1" depart="1052" />
    <vehicle id="335" type="typeCar" route="bottom0totop0" depart="1053" />
    <vehicle id="336" type="typeCar" route="bottom0totop1" depart="1053" />
    <vehicle id="337" type="typeCar" route="bottom0totop0" depart="1055" />
    <vehicle id="338" type="typeCar" route="bottom0totop1" depart="1055" />
    <vehicle id="339" type="typeCar" route="left0toright1" depart="1057" />
    <vehicle id="340" type="typeCar" route="bottom0totop1" depart="1058" />
    <vehicle id="341" type="typeCar" route="bottom0totop1" depart="1072" />
    <vehicle id="342" type="typeCar" route="left0toright1" depart="1073" />
    <vehicle id="343" type="typeCar" route="top1toleft1" depart="1074" />
    <vehicle id="344" type="typeCar" route="bottom0totop1" depart="1080" />
    <vehicle id="345" type="typeCar" route="top1toleft1" depart="1083" />
    <vehicle id="346" type="typeCar" route="bottom0totop1" depart="1090" />
    <vehicle id="347" type="typeCar" route="left0toright1" depart="1090" />
    <vehicle id="348" type="typeCar" route="left0toright1" depart="1091" />
    <vehicle id="349" type="typeCar" route="bottom0totop1" depart="1093" />
    <vehicle id="350" type="typeCar" route="bottom0totop1" depart="1096" />
    <vehicle id="351" type="typeCar" route="left0toright1" depart="1096" />
    <vehicle id="352" type="typeCar" route="left0toright1" depart="1098" />
    <vehicle id="353" type="typeCar" route="bottom0totop1" depart="1102" />
    <vehicle id="354" type="typeCar" route="bottom0totop0" depart="1104" />
    <vehicle id="355" type="typeCar" route="top0toright0" depart="1105" />
    <vehicle id="356" type="typeCar" route="left0toright1" depart="1108" />
    <vehicle id="357" type="typeCar" route="bottom0totop1" depart="1109" />
    <vehicle id="358" type="typeCar" route="bottom0totop0" depart="1118" />
    <vehicle id="359" type="typeCar" route="top0toright0" depart="1124" />
    <vehicle id="360" type="typeCar" route="left0toright1" depart="1126" />
    <vehicle id="361" type="typeCar" route="left0toright1" depart="1128" />
    <vehicle id="362" type="typeCar" route="bottom0totop1" depart="1138" />
    <vehicle id="363" type="typeCar" route="bottom0totop1" depart="1149" />
    <vehicle id="364" type="typeCar" route="bottom0totop1" depart="1150" />
    <vehicle id="365" type="typeCar" route="bottom0totop1" depart="1155" />
    <vehicle id="366" type="typeCar" route="bottom0toright1" depart="1155" />
    <vehicle id="367" type="typeCar" route="bottom0toright1" depart="1156" />
    <vehicle id="368" type="typeCar" route="left0toright1" depart="1167" />
    <vehicle id="369" type="typeCar" route="top1toleft1" depart="1168" />
    <vehicle id="370" type="typeCar" route="bottom0totop1" depart="1171" />
    <vehicle id="371" type="typeCar" route="top0toright0" depart="1176" />
    <vehicle id="372" type="typeCar" route="bottom0toright1" depart="1180" />
    <vehicle id="373" type="typeCar" route="top0toright0" depart="1184" />
    <vehicle id="374" type="typeCar" route="bottom0totop1" depart="1187" />
    <vehicle id="375" type="typeCar" route="top1toleft1" depart="1187" />
    <vehicle id="376" type="typeCar" route="bottom0totop1" depart="1189" />
    <vehicle id="377" type="typeCar" route="left0toright1" depart="1189" />
    <vehicle id="378" type="typeCar" route="bottom0totop1" depart="1192" />
    <vehicle id="379" type="typeCar" route="top1toleft1" depart="1193" />
    <vehicle id="380" type="typeCar" route="bottom0totop1" depart="1200" />
    <vehicle id="381" type="typeCar" route="left0toright1" depart="1204" />
    <vehicle id="382" type="typeCar" route="bottom0totop1" depart="1206" />
    <vehicle id="383" type="typeCar" route="bottom0totop0" depart="1207" />
    <vehicle id="384" type="typeCar" route="left0toright1" depart="1209" />
    <vehicle id="385" type="typeCar" route="bottom0toright1" depart="1211" />
    <vehicle id="386" type="typeCar" route="bottom0totop1" depart="1213" />
    <vehicle id="387" type="typeCar" route="bottom0totop1" depart="1221" />
    <vehicle id="388" type="typeCar" route="bottom0totop1" depart="1224" />
    <vehicle id="389" type="typeCar" route="left0toright1" depart="1224" />
    <vehicle id="390" type="typeCar" route="bottom0totop1" depart="1226" />