<?xml version="1.0" encoding="UTF-8"?>

<!-- generated on Mon Apr 25 16:14:07 2016 by SUMO netconvert Version 0.21.0
<?xml version="1.0" encoding="UTF-8"?>

<configuration xmlns:xsi="http://www.w3.org/2001/XMLSchema-instance" xsi:noNamespaceSchemaLocation="http://sumo-sim.org/xsd/netconvertConfiguration.xsd">

    <input>
        <node-files value="nodes.nod.xml"/>
        <edge-files value="edges.edg.xml"/>
        <connection-files value="connections.con.xml"/>
        <type-files value="type.typ.xml"/>
    </input>

    <output>
        <output-file value="net.net.xml"/>
    </output>

    <tls_building>
        <tls.guess value="true"/>
    </tls_building>

</configuration>
-->

<net version="0.13" xmlns:xsi="http://www.w3.org/2001/XMLSchema-instance" xsi:noNamespaceSchemaLocation="http://sumo-sim.org/xsd/net_file.xsd">

    <location netOffset="50.00,50.00" convBoundary="0.00,0.00,100.00,100.00" origBoundary="-50.00,-50.00,50.00,50.00" projParameter="!"/>

    <edge id="Eastbound" from="Center" to="East" priority="-1" type="b-road">
        <lane id="Eastbound_0" index="0" speed="13.89" length="45.25" shape="54.75,48.35 100.00,48.35"/>
    </edge>
    <edge id="Northbound" from="Center" to="North" priority="-1" type="b-road">
        <lane id="Northbound_0" index="0" speed="13.89" length="45.25" shape="51.65,54.75 51.65,100.00"/>
    </edge>
    <edge id="Southbound" from="Center" to="South" priority="-1" type="b-road">
        <lane id="Southbound_0" index="0" speed="13.89" length="45.25" shape="48.35,45.25 48.35,0.00"/>
    </edge>
    <edge id="Westbound" from="Center" to="West" priority="-1" type="b-road">
        <lane id="Westbound_0" index="0" speed="13.89" length="45.25" shape="45.25,51.65 0.00,51.65"/>
    </edge>

    <junction id="Center" type="unregulated" x="50.00" y="50.00" incLanes="" intLanes="" shape="50.05,54.75 53.25,54.75 54.75,49.95 54.75,46.75 49.95,45.25 46.75,45.25 45.25,50.05 45.25,53.25"/>
    <junction id="East" type="unregulated" x="100.00" y="50.00" incLanes="Eastbound_0" intLanes="" shape="100.00,46.75 100.00,49.95"/>
    <junction id="North" type="unregulated" x="50.00" y="100.00" incLanes="Northbound_0" intLanes="" shape="53.25,100.00 50.05,100.00"/>
    <junction id="South" type="unregulated" x="50.00" y="0.00" incLanes="Southbound_0" intLanes="" shape="46.75,0.00 49.95,0.00"/>
    <junction id="West" type="unregulated" x="0.00" y="50.00" incLanes="Westbound_0" intLanes="" shape="0.00,53.25 0.00,50.05"/>

</net>
