<types>
   <type id="b-road" priority="-1" numLanes="1" speed="13.889"/>
</types>